
#======================================================================
# CRYSTAL DATA
#----------------------------------------------------------------------
data_VESTA_phase_1

_chemical_name_common                  'cif2pos.py                            '
_cell_length_a                         10.150200
_cell_length_b                         10.150200
_cell_length_c                         34.938400
_cell_angle_alpha                      90.000099
_cell_angle_beta                       90.000000
_cell_angle_gamma                      119.999901
_cell_volume                           3117.333536
_space_group_name_H-M_alt              'P 1'
_space_group_IT_number                 1

loop_
_space_group_symop_operation_xyz
   'x, y, z'

loop_
   _atom_site_label
   _atom_site_occupancy
   _atom_site_fract_x
   _atom_site_fract_y
   _atom_site_fract_z
   _atom_site_adp_type
   _atom_site_U_iso_or_equiv
   _atom_site_type_symbol
   Mo1        1.0     0.166652     0.999990     0.609744    Uiso  ? Mo
   Mo2        1.0     0.166578     0.499960     0.609857    Uiso  ? Mo
   Mo3        1.0     0.666756     0.000095     0.609770    Uiso  ? Mo
   Mo4        1.0     0.666596     0.499996     0.609740    Uiso  ? Mo
   Mo5        1.0     0.333432     0.333190     0.609826    Uiso  ? Mo
   Mo6        1.0     0.333422     0.833376     0.609828    Uiso  ? Mo
   Mo7        1.0     0.833475     0.333387     0.609747    Uiso  ? Mo
   Mo8        1.0     0.833358     0.833352     0.609724    Uiso  ? Mo
   Mo9        1.0     0.000109     0.166687     0.609701    Uiso  ? Mo
   Mo10       1.0     0.999996     0.666648     0.609800    Uiso  ? Mo
   Mo11       1.0     0.500061     0.166643     0.609746    Uiso  ? Mo
   Mo12       1.0     0.500208     0.666724     0.609874    Uiso  ? Mo
   Si1        1.0     0.166698     0.166649     0.696023    Uiso  ? Si
   Si2        1.0     0.166673     0.666668     0.696027    Uiso  ? Si
   Si3        1.0     0.666727     0.166675     0.696019    Uiso  ? Si
   Si4        1.0     0.666688     0.666673     0.696025    Uiso  ? Si
   Si5        1.0     0.167260     0.167317     0.523418    Uiso  ? Si
   Si6        1.0     0.167569     0.667401     0.523701    Uiso  ? Si
   Si7        1.0     0.667227     0.167370     0.523486    Uiso  ? Si
   Si8        1.0     0.667221     0.666925     0.523384    Uiso  ? Si
   Si9        1.0     0.333356     1.000000     0.696026    Uiso  ? Si
   Si10       1.0     0.333338     0.499988     0.696028    Uiso  ? Si
   Si11       1.0     0.833395     0.000018     0.696006    Uiso  ? Si
   Si12       1.0     0.833334     0.499999     0.696027    Uiso  ? Si
   Si13       1.0     0.332781     0.000139     0.523604    Uiso  ? Si
   Si14       1.0     0.333179     0.500292     0.524175    Uiso  ? Si
   Si15       1.0     0.832608     0.999769     0.523457    Uiso  ? Si
   Si16       1.0     0.832663     0.499887     0.523622    Uiso  ? Si
   Si17       1.0     0.000014     0.333321     0.696027    Uiso  ? Si
   Si18       1.0     0.000009     0.833329     0.696023    Uiso  ? Si
   Si19       1.0     0.500022     0.333309     0.696023    Uiso  ? Si
   Si20       1.0     0.500041     0.833350     0.696028    Uiso  ? Si
   Si21       1.0     0.000192     0.332767     0.523389    Uiso  ? Si
   Si22       1.0     0.000103     0.832646     0.523511    Uiso  ? Si
   Si23       1.0     0.500341     0.333127     0.523390    Uiso  ? Si
   Si24       1.0     0.499997     0.832679     0.523747    Uiso  ? Si
   N1         1.0     0.167379     0.167299     0.573739    Uiso  ? N
   N2         1.0     0.167147     0.667034     0.573893    Uiso  ? N
   N3         1.0     0.667044     0.167020     0.573781    Uiso  ? N
   N4         1.0     0.666802     0.667087     0.573756    Uiso  ? N
   N5         1.0     0.166674     0.166603     0.645718    Uiso  ? N
   N6         1.0     0.166683     0.666717     0.645763    Uiso  ? N
   N7         1.0     0.666801     0.166766     0.645716    Uiso  ? N
   N8         1.0     0.666839     0.666743     0.645735    Uiso  ? N
   N9         1.0     0.166683     0.999982     0.710577    Uiso  ? N
   N10        1.0     0.166658     0.499986     0.710584    Uiso  ? N
   N11        1.0     0.666739     0.000022     0.710572    Uiso  ? N
   N12        1.0     0.666661     0.499991     0.710576    Uiso  ? N
   N13        1.0     0.165966     0.000048     0.509312    Uiso  ? N
   N14        1.0     0.167109     0.500584     0.509268    Uiso  ? N
   N15        1.0     0.665399     0.999796     0.509183    Uiso  ? N
   N16        1.0     0.666216     0.500086     0.509392    Uiso  ? N
   N17        1.0     0.333020     0.999828     0.573852    Uiso  ? N
   N18        1.0     0.333140     0.500006     0.574122    Uiso  ? N
   N19        1.0     0.832828     0.999888     0.573759    Uiso  ? N
   N20        1.0     0.833142     0.500074     0.573878    Uiso  ? N
   N21        1.0     0.333327     0.000033     0.645732    Uiso  ? N
   N22        1.0     0.333347     0.499923     0.645785    Uiso  ? N
   N23        1.0     0.833420     0.000064     0.645697    Uiso  ? N
   N24        1.0     0.833278     0.499969     0.645729    Uiso  ? N
   N25        1.0     0.333356     0.333295     0.710581    Uiso  ? N
   N26        1.0     0.333359     0.833336     0.710581    Uiso  ? N
   N27        1.0     0.833368     0.333345     0.710580    Uiso  ? N
   N28        1.0     0.833361     0.833353     0.710572    Uiso  ? N
   N29        1.0     0.334422     0.335233     0.509052    Uiso  ? N
   N30        1.0     0.334458     0.834265     0.509241    Uiso  ? N
   N31        1.0     0.834356     0.334243     0.509325    Uiso  ? N
   N32        1.0     0.834244     0.833894     0.509194    Uiso  ? N
   N33        1.0     0.000385     0.333285     0.573744    Uiso  ? N
   N34        1.0     0.000026     0.832838     0.573791    Uiso  ? N
   N35        1.0     0.499790     0.332884     0.573745    Uiso  ? N
   N36        1.0     0.500030     0.832847     0.573911    Uiso  ? N
   N37        1.0     0.999986     0.333205     0.645726    Uiso  ? N
   N38        1.0     0.999992     0.833331     0.645719    Uiso  ? N
   N39        1.0     0.500071     0.333235     0.645727    Uiso  ? N
   N40        1.0     0.500155     0.833424     0.645762    Uiso  ? N
   N41        1.0     0.000044     0.166662     0.710572    Uiso  ? N
   N42        1.0     0.999995     0.666666     0.710583    Uiso  ? N
   N43        1.0     0.500044     0.166648     0.710574    Uiso  ? N
   N44        1.0     0.500027     0.666668     0.710586    Uiso  ? N
   N45        1.0     0.499751     0.165758     0.509231    Uiso  ? N
   N46        1.0     0.499350     0.665465     0.509190    Uiso  ? N
   N47        1.0     0.999769     0.165516     0.509299    Uiso  ? N
   N48        1.0     0.000249     0.665522     0.509232    Uiso  ? N
   Ni1        1.0     0.002308     0.010427     0.351803    Uiso  ? Ni
   Ni2        1.0     0.000121     0.498121     0.349754    Uiso  ? Ni
   Ni3        1.0     0.502935     0.001040     0.349581    Uiso  ? Ni
   Ni4        1.0     0.499037     0.495471     0.348231    Uiso  ? Ni
   Ni5        1.0     0.001741     0.000659     0.441142    Uiso  ? Ni
   Ni6        1.0     0.998352     0.503213     0.441349    Uiso  ? Ni
   Ni7        1.0     0.498385     0.995773     0.441034    Uiso  ? Ni
   Ni8        1.0     0.477876     0.493309     0.436635    Uiso  ? Ni
   Ni9        1.0     0.331994     0.164758     0.394430    Uiso  ? Ni
   Ni10       1.0     0.333441     0.669930     0.391009    Uiso  ? Ni
   Ni11       1.0     0.839801     0.171110     0.398036    Uiso  ? Ni
   Ni12       1.0     0.830794     0.664974     0.395583    Uiso  ? Ni
   Te1        1.0     0.184788     0.348183     0.397556    Uiso  ? Te
   Te2        1.0     0.164764     0.832015     0.394458    Uiso  ? Te
   Te3        1.0     0.665652     0.332815     0.395302    Uiso  ? Te
   Te4        1.0     0.666757     0.832943     0.394621    Uiso  ? Te
   O1         1.0     0.319267     0.320052     0.359933    Uiso  ? O
   O2         1.0     0.317239     0.826961     0.360725    Uiso  ? O
   O3         1.0     0.820318     0.324137     0.364291    Uiso  ? O
   O4         1.0     0.822140     0.827706     0.363417    Uiso  ? O
   O5         1.0     0.177847     0.496916     0.360532    Uiso  ? O
   O6         1.0     0.172877     0.992201     0.362385    Uiso  ? O
   O7         1.0     0.675799     0.493149     0.362432    Uiso  ? O
   O8         1.0     0.679119     0.997454     0.363525    Uiso  ? O
   O9         1.0     0.015346     0.191385     0.367015    Uiso  ? O
   O10        1.0     0.003255     0.678833     0.362837    Uiso  ? O
   O11        1.0     0.507203     0.181030     0.362458    Uiso  ? O
   O12        1.0     0.507629     0.680334     0.361319    Uiso  ? O
   O13        1.0     0.013792     0.332022     0.430306    Uiso  ? O
   O14        1.0     0.005405     0.821832     0.427880    Uiso  ? O
   O15        1.0     0.501372     0.324885     0.426953    Uiso  ? O
   O16        1.0     0.498965     0.817144     0.425891    Uiso  ? O
   O17        1.0     0.179454     0.180005     0.429096    Uiso  ? O
   O18        1.0     0.178860     0.678559     0.425744    Uiso  ? O
   O19        1.0     0.672446     0.180727     0.428433    Uiso  ? O
   O20        1.0     0.661776     0.672485     0.426664    Uiso  ? O
   O21        1.0     0.318043     0.991196     0.426899    Uiso  ? O
   O22        1.0     0.814850     0.493220     0.428232    Uiso  ? O
   O23        1.0     0.814922     0.988545     0.428889    Uiso  ? O
