
#======================================================================
# CRYSTAL DATA
#----------------------------------------------------------------------
data_VESTA_phase_1

_chemical_name_common                  'This file is generated by VASPKIT code'
_cell_length_a                         10.150223
_cell_length_b                         10.150230
_cell_length_c                         34.938400
_cell_angle_alpha                      90.000076
_cell_angle_beta                       90.000000
_cell_angle_gamma                      119.999886
_cell_volume                           3117.350418
_space_group_name_H-M_alt              'P 1'
_space_group_IT_number                 1

loop_
_space_group_symop_operation_xyz
   'x, y, z'

loop_
   _atom_site_label
   _atom_site_occupancy
   _atom_site_fract_x
   _atom_site_fract_y
   _atom_site_fract_z
   _atom_site_adp_type
   _atom_site_U_iso_or_equiv
   _atom_site_type_symbol
   Mo1        1.0     0.167492     0.999426     0.611096    Uiso  ? Mo
   Mo2        1.0     0.166108     0.499121     0.611041    Uiso  ? Mo
   Mo3        1.0     0.666480     0.998793     0.611190    Uiso  ? Mo
   Mo4        1.0     0.668029     0.499595     0.611172    Uiso  ? Mo
   Mo5        1.0     0.337365     0.333464     0.611429    Uiso  ? Mo
   Mo6        1.0     0.337529     0.834927     0.611623    Uiso  ? Mo
   Mo7        1.0     0.838699     0.335540     0.611413    Uiso  ? Mo
   Mo8        1.0     0.837662     0.833845     0.611306    Uiso  ? Mo
   Mo9        1.0     0.001903     0.164824     0.611168    Uiso  ? Mo
   Mo10       1.0     0.001817     0.664261     0.611222    Uiso  ? Mo
   Mo11       1.0     0.501931     0.164465     0.611276    Uiso  ? Mo
   Mo12       1.0     0.502937     0.665431     0.610915    Uiso  ? Mo
   N1         1.0     0.164025     0.159988     0.574380    Uiso  ? N
   N2         1.0     0.164352     0.659370     0.574742    Uiso  ? N
   N3         1.0     0.663093     0.159762     0.575195    Uiso  ? N
   N4         1.0     0.661835     0.660798     0.574490    Uiso  ? N
   N5         1.0     0.170176     0.164976     0.646245    Uiso  ? N
   N6         1.0     0.170695     0.668536     0.646596    Uiso  ? N
   N7         1.0     0.670616     0.169880     0.646497    Uiso  ? N
   N8         1.0     0.670530     0.665284     0.646262    Uiso  ? N
   N9         1.0     0.169747     0.999541     0.709825    Uiso  ? N
   N10        1.0     0.171240     0.499953     0.710011    Uiso  ? N
   N11        1.0     0.670041     0.999383     0.709910    Uiso  ? N
   N12        1.0     0.670113     0.501332     0.709478    Uiso  ? N
   N13        1.0     0.162976     0.998806     0.512053    Uiso  ? N
   N14        1.0     0.160924     0.496779     0.510519    Uiso  ? N
   N15        1.0     0.661434     0.998558     0.511703    Uiso  ? N
   N16        1.0     0.662280     0.499909     0.511667    Uiso  ? N
   N17        1.0     0.340893     0.002454     0.574956    Uiso  ? N
   N18        1.0     0.338343     0.504629     0.574934    Uiso  ? N
   N19        1.0     0.840629     0.004630     0.574666    Uiso  ? N
   N20        1.0     0.841249     0.503042     0.574894    Uiso  ? N
   N21        1.0     0.336026     0.000564     0.646836    Uiso  ? N
   N22        1.0     0.336332     0.500836     0.646626    Uiso  ? N
   N23        1.0     0.838388     0.001353     0.646523    Uiso  ? N
   N24        1.0     0.837218     0.501238     0.646637    Uiso  ? N
   N25        1.0     0.337855     0.333978     0.708476    Uiso  ? N
   N26        1.0     0.336950     0.834426     0.709463    Uiso  ? N
   N27        1.0     0.838339     0.336116     0.709338    Uiso  ? N
   N28        1.0     0.838007     0.833771     0.708495    Uiso  ? N
   N29        1.0     0.336037     0.337405     0.511720    Uiso  ? N
   N30        1.0     0.334322     0.836247     0.510806    Uiso  ? N
   N31        1.0     0.832762     0.333661     0.511901    Uiso  ? N
   N32        1.0     0.834984     0.836800     0.511022    Uiso  ? N
   N33        1.0     0.001775     0.336342     0.574690    Uiso  ? N
   N34        1.0     0.001294     0.834629     0.574771    Uiso  ? N
   N35        1.0     0.498396     0.331946     0.575229    Uiso  ? N
   N36        1.0     0.498172     0.833554     0.574879    Uiso  ? N
   N37        1.0     0.996809     0.332281     0.646371    Uiso  ? N
   N38        1.0     0.998727     0.831358     0.646446    Uiso  ? N
   N39        1.0     0.496284     0.331741     0.646449    Uiso  ? N
   N40        1.0     0.495446     0.831011     0.646987    Uiso  ? N
   N41        1.0     0.006921     0.166280     0.709485    Uiso  ? N
   N42        1.0     0.006144     0.668620     0.709812    Uiso  ? N
   N43        1.0     0.504617     0.169114     0.709415    Uiso  ? N
   N44        1.0     0.503573     0.664179     0.709350    Uiso  ? N
   N45        1.0     0.500011     0.165196     0.511959    Uiso  ? N
   N46        1.0     0.498891     0.663332     0.510890    Uiso  ? N
   N47        1.0     0.999302     0.163521     0.511671    Uiso  ? N
   N48        1.0     0.999522     0.664213     0.512447    Uiso  ? N
   Si1        1.0     0.171889     0.166797     0.695943    Uiso  ? Si
   Si2        1.0     0.172120     0.667601     0.696069    Uiso  ? Si
   Si3        1.0     0.671511     0.168551     0.695895    Uiso  ? Si
   Si4        1.0     0.669740     0.667947     0.695925    Uiso  ? Si
   Si5        1.0     0.174888     0.171494     0.522878    Uiso  ? Si
   Si6        1.0     0.172894     0.668483     0.523929    Uiso  ? Si
   Si7        1.0     0.671750     0.168505     0.524510    Uiso  ? Si
   Si8        1.0     0.673042     0.670452     0.523741    Uiso  ? Si
   Si9        1.0     0.335583     0.000520     0.697258    Uiso  ? Si
   Si10       1.0     0.336878     0.499912     0.696790    Uiso  ? Si
   Si11       1.0     0.837369     0.000843     0.696789    Uiso  ? Si
   Si12       1.0     0.835528     0.501726     0.697082    Uiso  ? Si
   Si13       1.0     0.330609     0.001293     0.523684    Uiso  ? Si
   Si14       1.0     0.330793     0.501746     0.524354    Uiso  ? Si
   Si15       1.0     0.830534     0.001039     0.524463    Uiso  ? Si
   Si16       1.0     0.829078     0.499993     0.523165    Uiso  ? Si
   Si17       1.0     0.002862     0.333350     0.695944    Uiso  ? Si
   Si18       1.0     0.002674     0.832524     0.696032    Uiso  ? Si
   Si19       1.0     0.503021     0.334533     0.696218    Uiso  ? Si
   Si20       1.0     0.502257     0.832146     0.696390    Uiso  ? Si
   Si21       1.0     0.993731     0.326111     0.524260    Uiso  ? Si
   Si22       1.0     0.993293     0.826732     0.525075    Uiso  ? Si
   Si23       1.0     0.493412     0.326872     0.524776    Uiso  ? Si
   Si24       1.0     0.494269     0.826664     0.524150    Uiso  ? Si
   Ni1        1.0     0.996282     0.003362     0.348812    Uiso  ? Ni
   Ni2        1.0     0.002275     0.497999     0.348467    Uiso  ? Ni
   Ni3        1.0     0.504403     0.003763     0.351048    Uiso  ? Ni
   Ni4        1.0     0.501068     0.511337     0.348408    Uiso  ? Ni
   Ni5        1.0     0.994595     0.001873     0.437904    Uiso  ? Ni
   Ni6        1.0     0.989626     0.499090     0.434519    Uiso  ? Ni
   Ni7        1.0     0.492692     0.003260     0.435980    Uiso  ? Ni
   Ni8        1.0     0.491612     0.498908     0.437019    Uiso  ? Ni
   Ni9        1.0     0.330754     0.164213     0.386040    Uiso  ? Ni
   Ni10       1.0     0.324577     0.665599     0.390457    Uiso  ? Ni
   Ni11       1.0     0.836262     0.168901     0.389902    Uiso  ? Ni
   Ni12       1.0     0.840130     0.670136     0.387653    Uiso  ? Ni
   O1         1.0     0.309939     0.319681     0.361644    Uiso  ? O
   O2         1.0     0.310141     0.816453     0.359363    Uiso  ? O
   O3         1.0     0.814926     0.328322     0.361809    Uiso  ? O
   O4         1.0     0.801333     0.829151     0.361969    Uiso  ? O
   O5         1.0     0.182278     0.487778     0.358851    Uiso  ? O
   O6         1.0     0.165896     0.973078     0.358137    Uiso  ? O
   O7         1.0     0.674107     0.494520     0.363715    Uiso  ? O
   O8         1.0     0.676780     0.992237     0.364057    Uiso  ? O
   O9         1.0     0.002823     0.179155     0.363070    Uiso  ? O
   O10        1.0     0.017015     0.685802     0.359903    Uiso  ? O
   O11        1.0     0.510488     0.187616     0.361947    Uiso  ? O
   O12        1.0     0.509853     0.686562     0.365530    Uiso  ? O
   O13        1.0     0.005511     0.317366     0.428552    Uiso  ? O
   O14        1.0     0.001722     0.818586     0.424836    Uiso  ? O
   O15        1.0     0.502694     0.319616     0.428659    Uiso  ? O
   O16        1.0     0.502871     0.820471     0.429837    Uiso  ? O
   O17        1.0     0.173459     0.188282     0.427539    Uiso  ? O
   O18        1.0     0.175637     0.689543     0.428913    Uiso  ? O
   O19        1.0     0.677064     0.187206     0.427934    Uiso  ? O
   O20        1.0     0.671561     0.681504     0.425853    Uiso  ? O
   O21        1.0     0.316771     0.506767     0.424124    Uiso  ? O
   O22        1.0     0.308616     0.998071     0.424925    Uiso  ? O
   O23        1.0     0.817341     0.505949     0.426570    Uiso  ? O
   O24        1.0     0.826579     0.014433     0.425624    Uiso  ? O
   Te1        1.0     0.160897     0.331286     0.394952    Uiso  ? Te
   Te2        1.0     0.160163     0.828062     0.394757    Uiso  ? Te
   Te3        1.0     0.664775     0.332717     0.395803    Uiso  ? Te
   Te4        1.0     0.664740     0.834336     0.398297    Uiso  ? Te
