
#======================================================================
# CRYSTAL DATA
#----------------------------------------------------------------------
data_VESTA_phase_1

_chemical_name_common                  'generated with latticeMatcher         '
_cell_length_a                         5.065062
_cell_length_b                         5.065060
_cell_length_c                         34.854729
_cell_angle_alpha                      90.000114
_cell_angle_beta                       89.999893
_cell_angle_gamma                      119.999893
_cell_volume                           774.394288
_space_group_name_H-M_alt              'P 1'
_space_group_IT_number                 1

loop_
_space_group_symop_operation_xyz
   'x, y, z'

loop_
   _atom_site_label
   _atom_site_occupancy
   _atom_site_fract_x
   _atom_site_fract_y
   _atom_site_fract_z
   _atom_site_adp_type
   _atom_site_U_iso_or_equiv
   _atom_site_type_symbol
   Mo1        1.0     0.333299     0.000004     0.614347    Uiso  ? Mo
   Mo2        1.0     0.666703     0.666702     0.614347    Uiso  ? Mo
   Mo3        1.0     0.999997     0.333297     0.614347    Uiso  ? Mo
   N1         1.0     0.333746     0.333777     0.578460    Uiso  ? N
   N2         1.0     0.333373     0.333378     0.650231    Uiso  ? N
   N3         1.0     0.333327     0.000003     0.715429    Uiso  ? N
   N4         1.0     0.332361     0.000072     0.513335    Uiso  ? N
   N5         1.0     0.666223     0.999970     0.578460    Uiso  ? N
   N6         1.0     0.666622     0.999997     0.650231    Uiso  ? N
   N7         1.0     0.666670     0.666673     0.715429    Uiso  ? N
   N8         1.0     0.667709     0.667638     0.513335    Uiso  ? N
   N9         1.0     0.000030     0.666254     0.578460    Uiso  ? N
   N10        1.0     0.000002     0.666627     0.650231    Uiso  ? N
   N11        1.0     0.999998     0.333330     0.715429    Uiso  ? N
   N12        1.0     0.999927     0.332290     0.513335    Uiso  ? N
   Si1        1.0     0.333337     0.333341     0.700718    Uiso  ? Si
   Si2        1.0     0.334037     0.334069     0.527974    Uiso  ? Si
   Si3        1.0     0.666660     0.000002     0.700718    Uiso  ? Si
   Si4        1.0     0.665931     0.999970     0.527974    Uiso  ? Si
   Si5        1.0     0.999999     0.666664     0.700718    Uiso  ? Si
   Si6        1.0     0.000030     0.665962     0.527974    Uiso  ? Si
   Ni1        1.0     0.000004     0.999998     0.340350    Uiso  ? Ni
   Ni2        1.0     0.999999     0.999996     0.431334    Uiso  ? Ni
   Ni3        1.0     0.666668     0.333331     0.385501    Uiso  ? Ni
   O1         1.0     0.636528     0.648500     0.352843    Uiso  ? O
   O2         1.0     0.351502     0.988023     0.352843    Uiso  ? O
   O3         1.0     0.011978     0.363471     0.352843    Uiso  ? O
   O4         1.0     0.012046     0.648755     0.418155    Uiso  ? O
   O5         1.0     0.351242     0.363283     0.418156    Uiso  ? O
   O6         1.0     0.636717     0.987957     0.418155    Uiso  ? O
   Te1        1.0     0.333335     0.666664     0.385484    Uiso  ? Te
