
#======================================================================
# CRYSTAL DATA
#----------------------------------------------------------------------
data_VESTA_phase_1

_chemical_name_common                  'This file is generated by VASPKIT code'
_cell_length_a                         15.663538
_cell_length_b                         15.663374
_cell_length_c                         27.886299
_cell_angle_alpha                      90.000000
_cell_angle_beta                       90.000000
_cell_angle_gamma                      120.000343
_cell_volume                           5925.093278
_space_group_name_H-M_alt              'P 1'
_space_group_IT_number                 1

loop_
_space_group_symop_operation_xyz
   'x, y, z'

loop_
   _atom_site_label
   _atom_site_occupancy
   _atom_site_fract_x
   _atom_site_fract_y
   _atom_site_fract_z
   _atom_site_adp_type
   _atom_site_U_iso_or_equiv
   _atom_site_type_symbol
   Ni1        1.0     0.008783     0.004356     0.468909    Uiso  ? Ni
   Ni2        1.0     0.004714     0.345155     0.474403    Uiso  ? Ni
   Ni3        1.0     0.004611     0.664049     0.477447    Uiso  ? Ni
   Ni4        1.0     0.325197     0.994187     0.491111    Uiso  ? Ni
   Ni5        1.0     0.334657     0.337964     0.477731    Uiso  ? Ni
   Ni6        1.0     0.333567     0.667393     0.478440    Uiso  ? Ni
   Ni7        1.0     0.655226     0.994648     0.482119    Uiso  ? Ni
   Ni8        1.0     0.664715     0.345691     0.471818    Uiso  ? Ni
   Ni9        1.0     0.670954     0.662717     0.477895    Uiso  ? Ni
   Ni10       1.0     0.987656     0.993485     0.584895    Uiso  ? Ni
   Ni11       1.0     0.996498     0.332204     0.583456    Uiso  ? Ni
   Ni12       1.0     0.996160     0.659493     0.587541    Uiso  ? Ni
   Ni13       1.0     0.333902     0.016992     0.572031    Uiso  ? Ni
   Ni14       1.0     0.334973     0.330498     0.582495    Uiso  ? Ni
   Ni15       1.0     0.338861     0.672331     0.590660    Uiso  ? Ni
   Ni16       1.0     0.676343     0.000621     0.561944    Uiso  ? Ni
   Ni17       1.0     0.655233     0.318805     0.578471    Uiso  ? Ni
   Ni18       1.0     0.665686     0.662254     0.582926    Uiso  ? Ni
   Ni19       1.0     0.215912     0.106478     0.525476    Uiso  ? Ni
   Ni20       1.0     0.220313     0.445068     0.529724    Uiso  ? Ni
   Ni21       1.0     0.225480     0.782650     0.539180    Uiso  ? Ni
   Ni22       1.0     0.563433     0.114349     0.528405    Uiso  ? Ni
   Ni23       1.0     0.555213     0.444145     0.527325    Uiso  ? Ni
   Ni24       1.0     0.555594     0.774426     0.531060    Uiso  ? Ni
   Ni25       1.0     0.888984     0.114920     0.528984    Uiso  ? Ni
   Ni26       1.0     0.891909     0.451412     0.525072    Uiso  ? Ni
   Ni27       1.0     0.886005     0.772765     0.531588    Uiso  ? Ni
   Te1        1.0     0.112148     0.220893     0.528670    Uiso  ? Te
   Te2        1.0     0.114378     0.556297     0.531868    Uiso  ? Te
   Te3        1.0     0.105945     0.883883     0.534500    Uiso  ? Te
   Te4        1.0     0.443712     0.219479     0.523651    Uiso  ? Te
   Te5        1.0     0.443406     0.556206     0.536139    Uiso  ? Te
   Te6        1.0     0.446003     0.891784     0.538511    Uiso  ? Te
   Te7        1.0     0.782804     0.228127     0.520330    Uiso  ? Te
   Te8        1.0     0.779761     0.556662     0.534945    Uiso  ? Te
   Te9        1.0     0.774121     0.884136     0.525426    Uiso  ? Te
   O1         1.0     0.219963     0.224327     0.489945    Uiso  ? O
   O2         1.0     0.214076     0.552106     0.490353    Uiso  ? O
   O3         1.0     0.207699     0.874784     0.496124    Uiso  ? O
   O4         1.0     0.550770     0.220129     0.488087    Uiso  ? O
   O5         1.0     0.544821     0.551965     0.493019    Uiso  ? O
   O6         1.0     0.536825     0.871540     0.492436    Uiso  ? O
   O7         1.0     0.882906     0.220615     0.483279    Uiso  ? O
   O8         1.0     0.878913     0.555000     0.494413    Uiso  ? O
   O9         1.0     0.892035     0.887837     0.494021    Uiso  ? O
   O10        1.0     0.123803     0.337924     0.491322    Uiso  ? O
   O11        1.0     0.127318     0.676846     0.496556    Uiso  ? O
   O12        1.0     0.107227     0.978088     0.487067    Uiso  ? O
   O13        1.0     0.448296     0.327161     0.487625    Uiso  ? O
   O14        1.0     0.454069     0.671862     0.498257    Uiso  ? O
   O15        1.0     0.444608     0.992039     0.491796    Uiso  ? O
   O16        1.0     0.784360     0.338612     0.483070    Uiso  ? O
   O17        1.0     0.788852     0.662501     0.490236    Uiso  ? O
   O18        1.0     0.783419     0.987070     0.485363    Uiso  ? O
   O19        1.0     0.995357     0.117029     0.487459    Uiso  ? O
   O20        1.0     0.011992     0.465628     0.487311    Uiso  ? O
   O21        1.0     0.997659     0.776504     0.494586    Uiso  ? O
   O22        1.0     0.336806     0.113398     0.481724    Uiso  ? O
   O23        1.0     0.339550     0.458000     0.493670    Uiso  ? O
   O24        1.0     0.333418     0.785517     0.499897    Uiso  ? O
   O25        1.0     0.673488     0.120980     0.484192    Uiso  ? O
   O26        1.0     0.672657     0.460160     0.490748    Uiso  ? O
   O27        1.0     0.666287     0.781487     0.485271    Uiso  ? O
   O28        1.0     0.005836     0.217432     0.570242    Uiso  ? O
   O29        1.0     0.005636     0.551090     0.568082    Uiso  ? O
   O30        1.0     0.997813     0.881742     0.574814    Uiso  ? O
   O31        1.0     0.339540     0.207790     0.563135    Uiso  ? O
   O32        1.0     0.334971     0.550029     0.573244    Uiso  ? O
   O33        1.0     0.329028     0.886644     0.573112    Uiso  ? O
   O34        1.0     0.678737     0.218101     0.564595    Uiso  ? O
   O35        1.0     0.671094     0.544360     0.573861    Uiso  ? O
   O36        1.0     0.659479     0.870035     0.562820    Uiso  ? O
   O37        1.0     0.110188     0.112077     0.570848    Uiso  ? O
   O38        1.0     0.116702     0.452567     0.570035    Uiso  ? O
   O39        1.0     0.109085     0.782743     0.576177    Uiso  ? O
   O40        1.0     0.463923     0.122558     0.566377    Uiso  ? O
   O41        1.0     0.451208     0.451012     0.569578    Uiso  ? O
   O42        1.0     0.451238     0.793375     0.583116    Uiso  ? O
   O43        1.0     0.789552     0.135672     0.565792    Uiso  ? O
   O44        1.0     0.779650     0.441346     0.565296    Uiso  ? O
   O45        1.0     0.786392     0.785327     0.565726    Uiso  ? O
   O46        1.0     0.214218     0.324648     0.569109    Uiso  ? O
   O47        1.0     0.217056     0.667949     0.576083    Uiso  ? O
   O48        1.0     0.207767     0.996469     0.571190    Uiso  ? O
   O49        1.0     0.542197     0.330253     0.565386    Uiso  ? O
   O50        1.0     0.554815     0.669451     0.569966    Uiso  ? O
   O51        1.0     0.556551     0.003749     0.569798    Uiso  ? O
   O52        1.0     0.881851     0.335669     0.560442    Uiso  ? O
   O53        1.0     0.881452     0.660678     0.575653    Uiso  ? O
   O54        1.0     0.863285     0.985074     0.572986    Uiso  ? O
