
#======================================================================
# CRYSTAL DATA
#----------------------------------------------------------------------
data_VESTA_phase_1

_chemical_name_common                  'This file is generated by VASPKIT code'
_cell_length_a                         10.130123
_cell_length_b                         10.130120
_cell_length_c                         34.854729
_cell_angle_alpha                      90.000114
_cell_angle_beta                       89.999893
_cell_angle_gamma                      119.999893
_cell_volume                           3097.577151
_space_group_name_H-M_alt              'P 1'
_space_group_IT_number                 1

loop_
_space_group_symop_operation_xyz
   'x, y, z'

loop_
   _atom_site_label
   _atom_site_occupancy
   _atom_site_fract_x
   _atom_site_fract_y
   _atom_site_fract_z
   _atom_site_adp_type
   _atom_site_U_iso_or_equiv
   _atom_site_type_symbol
   Mo1        1.0     0.166656     0.000001     0.614356    Uiso  ? Mo
   Mo2        1.0     0.166656     0.500001     0.614356    Uiso  ? Mo
   Mo3        1.0     0.666656     0.000001     0.614356    Uiso  ? Mo
   Mo4        1.0     0.666656     0.500001     0.614356    Uiso  ? Mo
   Mo5        1.0     0.333344     0.333344     0.614356    Uiso  ? Mo
   Mo6        1.0     0.333344     0.833344     0.614356    Uiso  ? Mo
   Mo7        1.0     0.833344     0.333344     0.614356    Uiso  ? Mo
   Mo8        1.0     0.833344     0.833344     0.614356    Uiso  ? Mo
   Mo9        1.0    -0.000001     0.166656     0.614356    Uiso  ? Mo
   Mo10       1.0    -0.000001     0.666656     0.614356    Uiso  ? Mo
   Mo11       1.0     0.499999     0.166656     0.614356    Uiso  ? Mo
   Mo12       1.0     0.499999     0.666656     0.614356    Uiso  ? Mo
   N1         1.0     0.166803     0.166811     0.578456    Uiso  ? N
   N2         1.0     0.166803     0.666811     0.578456    Uiso  ? N
   N3         1.0     0.666803     0.166811     0.578456    Uiso  ? N
   N4         1.0     0.666803     0.666811     0.578456    Uiso  ? N
   N5         1.0     0.166679     0.166681     0.650246    Uiso  ? N
   N6         1.0     0.166679     0.666681     0.650246    Uiso  ? N
   N7         1.0     0.666679     0.166681     0.650246    Uiso  ? N
   N8         1.0     0.666679     0.666681     0.650246    Uiso  ? N
   N9         1.0     0.166664     0.000002     0.715434    Uiso  ? N
   N10        1.0     0.166664     0.500002     0.715434    Uiso  ? N
   N11        1.0     0.666664     0.000002     0.715434    Uiso  ? N
   N12        1.0     0.666664     0.500002     0.715434    Uiso  ? N
   N13        1.0     0.166333     0.000019     0.513351    Uiso  ? N
   N14        1.0     0.166333     0.500019     0.513351    Uiso  ? N
   N15        1.0     0.666333     0.000019     0.513351    Uiso  ? N
   N16        1.0     0.666333     0.500019     0.513351    Uiso  ? N
   N17        1.0     0.333189     0.999993     0.578456    Uiso  ? N
   N18        1.0     0.333189     0.499993     0.578456    Uiso  ? N
   N19        1.0     0.833189     0.999993     0.578456    Uiso  ? N
   N20        1.0     0.833189     0.499993     0.578456    Uiso  ? N
   N21        1.0     0.333320     0.000000     0.650246    Uiso  ? N
   N22        1.0     0.333320     0.500000     0.650246    Uiso  ? N
   N23        1.0     0.833320     0.000000     0.650246    Uiso  ? N
   N24        1.0     0.833320     0.500000     0.650246    Uiso  ? N
   N25        1.0     0.333334     0.333337     0.715434    Uiso  ? N
   N26        1.0     0.333334     0.833337     0.715434    Uiso  ? N
   N27        1.0     0.833334     0.333337     0.715434    Uiso  ? N
   N28        1.0     0.833334     0.833337     0.715434    Uiso  ? N
   N29        1.0     0.333685     0.333667     0.513351    Uiso  ? N
   N30        1.0     0.333685     0.833667     0.513351    Uiso  ? N
   N31        1.0     0.833685     0.333667     0.513351    Uiso  ? N
   N32        1.0     0.833685     0.833667     0.513351    Uiso  ? N
   N33        1.0     0.000008     0.333198     0.578456    Uiso  ? N
   N34        1.0     0.000008     0.833198     0.578456    Uiso  ? N
   N35        1.0     0.500008     0.333198     0.578456    Uiso  ? N
   N36        1.0     0.500008     0.833198     0.578456    Uiso  ? N
   N37        1.0     0.000000     0.333322     0.650246    Uiso  ? N
   N38        1.0     0.000000     0.833322     0.650246    Uiso  ? N
   N39        1.0     0.500000     0.333322     0.650246    Uiso  ? N
   N40        1.0     0.500000     0.833322     0.650246    Uiso  ? N
   N41        1.0     0.999999     0.166666     0.715434    Uiso  ? N
   N42        1.0     0.999999     0.666666     0.715434    Uiso  ? N
   N43        1.0     0.499999     0.166666     0.715434    Uiso  ? N
   N44        1.0     0.499999     0.666666     0.715434    Uiso  ? N
   N45        1.0     0.499981     0.166315     0.513351    Uiso  ? N
   N46        1.0     0.499981     0.666315     0.513351    Uiso  ? N
   N47        1.0     0.999981     0.166315     0.513351    Uiso  ? N
   N48        1.0     0.999981     0.666315     0.513351    Uiso  ? N
   Si1        1.0     0.166667     0.166670     0.700733    Uiso  ? Si
   Si2        1.0     0.166667     0.666671     0.700733    Uiso  ? Si
   Si3        1.0     0.666667     0.166670     0.700733    Uiso  ? Si
   Si4        1.0     0.666667     0.666671     0.700733    Uiso  ? Si
   Si5        1.0     0.166896     0.166901     0.527987    Uiso  ? Si
   Si6        1.0     0.166896     0.666901     0.527987    Uiso  ? Si
   Si7        1.0     0.666896     0.166901     0.527987    Uiso  ? Si
   Si8        1.0     0.666896     0.666901     0.527987    Uiso  ? Si
   Si9        1.0     0.333330     0.000002     0.700733    Uiso  ? Si
   Si10       1.0     0.333330     0.500002     0.700733    Uiso  ? Si
   Si11       1.0     0.833330     0.000002     0.700733    Uiso  ? Si
   Si12       1.0     0.833330     0.500002     0.700733    Uiso  ? Si
   Si13       1.0     0.333099    -0.000004     0.527987    Uiso  ? Si
   Si14       1.0     0.333099     0.499996     0.527987    Uiso  ? Si
   Si15       1.0     0.833099    -0.000004     0.527987    Uiso  ? Si
   Si16       1.0     0.833099     0.499996     0.527987    Uiso  ? Si
   Si17       1.0     0.999999     0.333333     0.700733    Uiso  ? Si
   Si18       1.0     0.999999     0.833333     0.700733    Uiso  ? Si
   Si19       1.0     0.499999     0.333333     0.700733    Uiso  ? Si
   Si20       1.0     0.499999     0.833333     0.700733    Uiso  ? Si
   Si21       1.0     0.000004     0.333104     0.527987    Uiso  ? Si
   Si22       1.0     0.000004     0.833104     0.527987    Uiso  ? Si
   Si23       1.0     0.500004     0.333104     0.527987    Uiso  ? Si
   Si24       1.0     0.500004     0.833104     0.527987    Uiso  ? Si
   Ni1        1.0     0.000003     0.999999     0.340094    Uiso  ? Ni
   Ni2        1.0     0.000003     0.499999     0.340094    Uiso  ? Ni
   Ni3        1.0     0.500003     0.999999     0.340094    Uiso  ? Ni
   Ni4        1.0     0.500003     0.499999     0.340094    Uiso  ? Ni
   Ni5        1.0    -0.000000    -0.000002     0.431599    Uiso  ? Ni
   Ni6        1.0    -0.000000     0.499998     0.431599    Uiso  ? Ni
   Ni7        1.0     0.500000    -0.000002     0.431599    Uiso  ? Ni
   Ni8        1.0     0.500000     0.499998     0.431599    Uiso  ? Ni
   Ni9        1.0     0.333335     0.166665     0.385500    Uiso  ? Ni
   Ni10       1.0     0.333335     0.666665     0.385500    Uiso  ? Ni
   Ni11       1.0     0.833335     0.166665     0.385500    Uiso  ? Ni
   Ni12       1.0     0.833335     0.666665     0.385500    Uiso  ? Ni
   O1         1.0     0.319048     0.322844     0.352563    Uiso  ? O
   O2         1.0     0.319048     0.822845     0.352563    Uiso  ? O
   O3         1.0     0.819048     0.322844     0.352563    Uiso  ? O
   O4         1.0     0.819048     0.822845     0.352563    Uiso  ? O
   O5         1.0     0.177156     0.496199     0.352563    Uiso  ? O
   O6         1.0     0.177156     0.996199     0.352563    Uiso  ? O
   O7         1.0     0.677156     0.496199     0.352563    Uiso  ? O
   O8         1.0     0.677156     0.996199     0.352563    Uiso  ? O
   O9         1.0     0.003802     0.180952     0.352563    Uiso  ? O
   O10        1.0     0.003802     0.680952     0.352563    Uiso  ? O
   O11        1.0     0.503802     0.180952     0.352563    Uiso  ? O
   O12        1.0     0.503802     0.680952     0.352563    Uiso  ? O
   O13        1.0     0.003894     0.323016     0.418369    Uiso  ? O
   O14        1.0     0.003894     0.823016     0.418369    Uiso  ? O
   O15        1.0     0.503894     0.323016     0.418369    Uiso  ? O
   O16        1.0     0.503894     0.823016     0.418369    Uiso  ? O
   O17        1.0     0.176983     0.180873     0.418369    Uiso  ? O
   O18        1.0     0.176983     0.680873     0.418369    Uiso  ? O
   O19        1.0     0.676983     0.180873     0.418369    Uiso  ? O
   O20        1.0     0.676983     0.680873     0.418369    Uiso  ? O
   O21        1.0     0.319126     0.496106     0.418369    Uiso  ? O
   O22        1.0     0.319126     0.996106     0.418369    Uiso  ? O
   O23        1.0     0.819126     0.496106     0.418369    Uiso  ? O
   O24        1.0     0.819126     0.996106     0.418369    Uiso  ? O
   Te1        1.0     0.166668     0.333331     0.385463    Uiso  ? Te
   Te2        1.0     0.166668     0.833331     0.385463    Uiso  ? Te
   Te3        1.0     0.666668     0.333331     0.385463    Uiso  ? Te
   Te4        1.0     0.666668     0.833331     0.385463    Uiso  ? Te
